*SPEF "IEEE 1481-1998"
*DESIGN "mult4x4_pipelined"
*DATE "Wed Nov 19 13:24:56 2025"
*VENDOR "Cadence Design Systems, Inc."
*PROGRAM "Innovus"
*VERSION "21.15-s110_1"
*DESIGN_FLOW "COUPLING C" "PIN_CAP NONE" "NAME_SCOPE LOCAL"
*DIVIDER /
*DELIMITER :
*BUS_DELIMITER []
*T_UNIT 1 NS
*C_UNIT 1 PF
*R_UNIT 1 OHM
*L_UNIT 1 HENRY

// MMMC spef file for corner 'rc_worst'

*NAME_MAP

*1 FE_PHN7_s1_a_1
*2 FE_PHN6_pp0_0
*3 FE_PHN5_pp1_3
*4 FE_PHN4_pp2_0
*5 FE_PHN3_s1_a_0
*6 FE_PHN2_s1_a_1
*7 FE_OFN1_s1_a_3
*8 FE_OFN0_s1_b_6
*9 clk
*10 rst_n
*11 A[3]
*12 A[2]
*13 A[1]
*14 A[0]
*15 B[3]
*16 B[2]
*17 B[1]
*18 B[0]
*19 P[7]
*20 P[6]
*21 P[5]
*22 P[4]
*23 P[3]
*24 P[2]
*25 P[1]
*26 P[0]
*27 s1_b[7]
*28 s1_b[6]
*29 s1_b[5]
*30 s1_b[4]
*31 s1_b[3]
*32 s1_b[2]
*33 s1_a[5]
*34 s1_a[4]
*35 s1_a[3]
*36 s1_a[2]
*37 s1_a[1]
*38 s1_a[0]
*39 pp3[3]
*40 pp3[2]
*41 pp3[1]
*42 pp3[0]
*43 pp1[3]
*44 pp1[2]
*45 pp1[1]
*46 pp1[0]
*47 pp0[3]
*48 pp0[2]
*49 pp0[1]
*50 pp0[0]
*51 pp2[3]
*52 pp2[2]
*53 pp2[1]
*54 pp2[0]
*55 UNCONNECTED
*56 UNCONNECTED0
*57 UNCONNECTED1
*58 UNCONNECTED2
*59 UNCONNECTED3
*60 UNCONNECTED4
*61 UNCONNECTED5
*62 UNCONNECTED6
*63 UNCONNECTED7
*64 UNCONNECTED8
*65 UNCONNECTED9
*66 UNCONNECTED10
*67 UNCONNECTED11
*68 UNCONNECTED12
*69 UNCONNECTED13
*70 UNCONNECTED14
*71 UNCONNECTED15
*72 UNCONNECTED16
*73 UNCONNECTED17
*74 UNCONNECTED18
*75 UNCONNECTED19
*76 UNCONNECTED20
*77 UNCONNECTED21
*78 UNCONNECTED22
*79 UNCONNECTED23
*80 UNCONNECTED24
*81 UNCONNECTED25
*82 UNCONNECTED26
*83 UNCONNECTED27
*84 UNCONNECTED28
*85 UNCONNECTED29
*86 UNCONNECTED30
*87 UNCONNECTED31
*88 UNCONNECTED32
*89 UNCONNECTED33
*90 UNCONNECTED34
*91 n_0
*92 n_1
*93 n_2
*94 n_3
*95 n_4
*96 n_5
*97 n_6
*98 n_7
*99 n_8
*100 n_9
*101 n_10
*102 n_11
*103 n_12
*104 n_13
*105 n_14
*106 n_15
*107 n_16
*108 n_17
*109 n_18
*110 n_19
*111 n_20
*112 n_21
*113 n_23
*114 n_24
*115 n_25
*116 n_26
*117 n_27
*118 n_28
*119 n_29
*120 n_30
*121 n_31
*122 n_32
*123 n_33
*124 n_34
*125 n_35
*126 n_38
*127 n_39
*128 n_40
*129 n_42
*130 n_43
*131 n_46
*132 n_47
*133 n_48
*134 n_49
*135 n_50
*136 n_51
*137 n_52
*138 n_53
*139 n_54
*140 n_55
*141 n_58
*142 n_60
*143 n_62
*144 n_63
*145 n_64
*146 n_65
*147 n_66
*148 n_68
*149 n_69
*150 n_70
*151 n_71
*152 n_72
*153 n_73
*154 n_74
*155 n_75
*156 n_76
*157 n_77
*158 n_78
*159 n_79
*160 n_80
*161 n_81
*162 n_82
*163 n_83
*164 n_84
*165 n_85
*166 n_86
*167 n_87
*168 n_88
*169 n_89
*170 n_90
*171 n_91
*172 n_450
*173 n_451
*174 n_452
*175 FE_PHC7_s1_a_1
*176 FE_PHC6_pp0_0
*177 FE_PHC5_pp1_3
*178 FE_PHC4_pp2_0
*179 FE_PHC3_s1_a_0
*180 FE_PHC2_s1_a_1
*181 FE_OFC1_s1_a_3
*182 FE_OFC0_s1_b_6
*183 P_reg\[7\]
*184 P_reg\[6\]
*185 g1126__2398
*186 g1128
*187 g1129__5107
*188 g1131__6260
*189 g1132__4319
*190 P_reg\[5\]
*191 g1133__8428
*192 g1134__5526
*193 P_reg\[4\]
*194 g1136__6783
*195 g1138__3680
*196 g1137__1617
*197 g1140__2802
*198 P_reg\[3\]
*199 g1141__1705
*200 g1143
*201 g1147__5122
*202 g1142__8246
*203 g1144__7098
*204 g1145__6131
*205 g1154__1881
*206 g1146
*207 g1149__5115
*208 s1_a_reg\[4\]
*209 g1156__7482
*210 s1_b_reg\[6\]
*211 g1148__4733
*212 g1155__6161
*213 P_reg\[2\]
*214 s1_b_reg\[7\]
*215 s1_a_reg\[5\]
*216 g1160__9315
*217 g1161__9945
*218 g1158__2883
*219 g1162__2346
*220 g1167__1666
*221 g1168__6417
*222 s1_a_reg\[3\]
*223 s1_b_reg\[5\]
*224 g1177__5477
*225 g1170
*226 g1173__2398
*227 g1176__5107
*228 s1_b_reg\[4\]
*229 g1172__6260
*230 g1175__4319
*231 g1174__8428
*232 g1180__5526
*233 g1181__6783
*234 g1184__3680
*235 s1_a_reg\[2\]
*236 P_reg\[1\]
*237 s1_b_reg\[3\]
*238 g1183__1617
*239 g1185__2802
*240 s1_a_reg\[1\]
*241 g1188__1705
*242 g1194__8246
*243 P_reg\[0\]
*244 g1195__6131
*245 g1196__1881
*246 g1198__5115
*247 g1199__7482
*248 g1192
*249 g1200
*250 g1207
*251 g1208
*252 g1214__4733
*253 g1209
*254 s1_a_reg\[0\]
*255 g1202__6161
*256 g1204__9315
*257 g1203__9945
*258 g1205__2883
*259 s1_b_reg\[2\]
*260 g1211__2346
*261 g1212__1666
*262 g1213__7410
*263 g1215__6417
*264 g1216__5477
*265 g1217__2398
*266 g1218
*267 g1227
*268 pp2_reg\[0\]
*269 pp2_reg\[1\]
*270 pp3_reg\[0\]
*271 pp3_reg\[1\]
*272 pp3_reg\[3\]
*273 pp1_reg\[2\]
*274 pp0_reg\[1\]
*275 pp3_reg\[2\]
*276 pp0_reg\[0\]
*277 pp1_reg\[0\]
*278 pp2_reg\[2\]
*279 pp0_reg\[3\]
*280 pp0_reg\[2\]
*281 pp1_reg\[3\]
*282 pp1_reg\[1\]
*283 pp2_reg\[3\]
*284 g1239__5107
*285 g1236__6260
*286 g1237__4319
*287 g1238__8428
*288 g1246__5526
*289 g1240__6783
*290 g1241__3680
*291 g1242__1617
*292 g1248__2802
*293 g1244__1705
*294 g1245__5122
*295 g1247__8246
*296 g1243__7098
*297 g1249__6131
*298 g1251__1881
*299 g1250__5115
*300 g2
*301 g1619
*302 g1620


*PORTS

*9 I *C 0 0
*10 I *C 0 0
*11 I *C 0 0
*12 I *C 0 0
*13 I *C 0 0
*14 I *C 0 0
*15 I *C 0 0
*16 I *C 0 0
*17 I *C 0 0
*18 I *C 0 0
*19 O *C 0 0
*20 O *C 0 0
*21 O *C 0 0
*22 O *C 0 0
*23 O *C 0 0
*24 O *C 0 0
*25 O *C 0 0
*26 O *C 0 0


*D_NET *1 0.00312221

*CONN
*I *175:Y O *C 44.9 37.905 *L 0 *D BUFX2
*I *236:D I *C 16.1 44.935 *L 0.000654 *D DFFRX4

*CAP
1 *175:Y 2.01221e-05
2 *236:D 1.85866e-05
3 *1:2 0.000252107
4 *1:3 0.00024143
5 *1:4 0.0011701
6 *1:5 0.0011701
7 *1:6 9.34866e-05
8 *1:7 2.93529e-05
9 *1:8 8.28096e-05
10 *1:9 2.20683e-05
11 *1:10 2.20683e-05

*RES
1 *1:7 *236:D 0.332788
2 *1:10 *175:Y 8.85967
3 *1:8 *1:7 8.85967
4 *1:9 *1:10 0.270138
5 *1:6 *1:8 1.63231
6 *1:4 *1:9 8.85967
7 *1:2 *1:6 0.389235
8 *1:5 *1:4 20.3258152
9 *1:3 *1:2 3.55181
10 *1:3 *1:5 8.85967
*END

*D_NET *2 0.00147611

*CONN
*I *176:Y O *C 30.5 24.225 *L 0 *D BUFX2
*I *254:D I *C 19.5 22.895 *L 0.000559 *D DFFRXL

*CAP
1 *176:Y 2.01126e-05
2 *254:D 1.85802e-05
3 *2:2 0.000651143
4 *2:3 0.00066069
5 *2:4 3.89145e-05
6 *2:5 4.33403e-05
7 *2:6 4.33403e-05

*RES
1 *2:6 *176:Y 8.85957623
2 *2:5 *2:6 0.673904
3 *2:2 *2:5 8.85957623
4 *2:3 *2:2 8.8174
5 *2:4 *2:3 0.526821
6 *254:D *2:4 0.332694
*END

*D_NET *3 0.000612551

*CONN
*I *177:Y O *C 28.1 22.895 *L 0 *D BUFX2
*I *221:B I *C 25.5 26.125 *L 0.000616 *D AND2X1

*CAP
1 *177:Y 0.00012781
2 *221:B 2.01202e-05
3 *3:2 5.51206e-05
4 *3:3 5.65901e-05
5 *3:4 5.51901e-05
6 *3:5 5.37206e-05
7 *3:6 0.00013797
8 *3:7 2.52487e-05
9 *3:8 4.03899e-05
10 *3:9 4.03899e-05

*RES
1 *3:2 *221:B 8.85957623
2 *3:3 *3:2 0.672417
3 *3:3 *3:9 0.194668
4 *3:8 *3:9 0.851945
5 *3:4 *3:8 0.194668
6 *3:5 *3:4 0.675391
7 *3:7 *3:5 8.85957623
8 *3:6 *3:7 0.263478
9 *3:6 *177:Y 2.16271
*END

*D_NET *4 0.00115616

*CONN
*I *178:Y O *C 41.3 37.715 *L 0 *D DLY2X1
*I *259:D I *C 33.7 44.745 *L 0.000555 *D DFFSRX1

*CAP
1 *178:Y 2.01209e-05
2 *259:D 2.01209e-05
3 *4:2 0.00012436
4 *4:3 0.00012583
5 *4:4 0.000199489277
6 *4:5 0.000198479
7 *4:6 0.000153981
8 *4:7 0.000154989
9 *4:9 7.09407e-05
10 *4:10 7.24109e-05
11 *4:11 1.54392e-05

*RES
1 *4:2 *259:D 8.85957623
2 *4:3 *4:2 3.57487
3 *4:3 *4:10 0.194668
4 *4:9 *4:10 1.16504
5 *4:5 *4:9 8.85957623
6 *4:5 *4:4 2.84392
7 *4:7 *4:4 0.185341
8 *4:7 *4:6 2.42213
9 *4:11 *4:6 8.85957623
10 *4:11 *178:Y 8.85957623
11 *4:8 *4:11 0.221571
*END

*D_NET *5 0.00058716

*CONN
*I *179:Y O *C 17.5 16.055 *L 0 *D DLY1X1
*I *243:D I *C 15.9 20.995 *L 0.000654 *D DFFRX4

*CAP
1 *179:Y 2.01211e-05
2 *243:D 7.51988e-05
3 *5:2 0.00020293
4 *5:3 0.00020293
5 *5:4 8.59809e-05

*RES
1 *5:3 *179:Y 8.85957623
2 *5:3 *5:2 3.59244
3 *5:4 *5:2 8.85957623
4 *243:D *5:4 1.33091
*END

*D_NET *6 0.00323169

*CONN
*I *175:A I *C 45.3 38.095 *L 0.000602 *D BUFX2
*I *180:Y O *C 15.7 29.735 *L 0 *D BUFX2

*CAP
1 *175:A 2.01098e-05
2 *180:Y 2.01098e-05
3 *6:2 4.96494e-05
4 *6:3 4.81906e-05
5 *6:4 0.000371042
6 *6:5 0.000372518
7 *6:6 0.00113808
8 *6:7 0.00113808
9 *6:8 3.69548e-05
10 *6:9 3.69548e-05

*RES
1 *6:8 *175:A 8.85952
2 *6:8 *6:9 0.540362
3 *6:6 *6:9 8.85952
4 *6:7 *6:6 20.8435249
5 *6:3 *180:Y 8.85952
6 *6:4 *6:7 8.85952
7 *6:3 *6:2 0.647226
8 *6:5 *6:4 5.85556
9 *6:5 *6:2 0.194645
*END

*D_NET *7 0.000913463

*CONN
*I *218:A I *C 32.5 41.515 *L 0.000587 *D OR2X2
*I *219:B I *C 35.7 43.415 *L 0.00155 *D NAND2X2
*I *181:Y O *C 30.5 41.325 *L 0 *D BUFX2

*CAP
1 *218:A 6.72173e-05
2 *219:B 4.06493e-05
3 *181:Y 1.03204e-05
4 *7:3 7.67721e-05
5 *7:4 5.09696e-05
6 *7:5 0.00020817
7 *7:6 0.000178302
8 *7:7 3.07387e-05
9 *7:8 2.9268e-05
10 *7:9 9.86104e-05
11 *7:10 7.82905e-05
12 *7:11 2.28102e-05
13 *7:12 2.13427e-05

*RES
1 *7:5 *219:B 1.05364
2 *7:6 *7:5 2.60166
3 *7:12 *7:6 8.85957623
4 *7:11 *7:12 0.258882
5 *7:7 *7:11 0.194668
6 *7:8 *7:7 0.405289
7 *218:A *7:8 8.85957623
8 *7:3 *218:A 0.998216
9 *7:3 *7:10 0.526821
10 *7:9 *7:10 0.831802
11 *7:4 *7:9 1.05364
12 *7:4 *181:Y 0.166414
*END

*D_NET *8 0.000686436

*CONN
*I *189:B I *C 36.7 17.385 *L 0.00155 *D NAND2X2
*I *188:B I *C 33.5 20.615 *L 0.000604 *D OR2X2
*I *182:Y O *C 35.5 17.385 *L 0 *D BUFX2

*CAP
1 *189:B 2.55496e-05
2 *188:B 1.01597e-05
3 *182:Y 1.032e-05
4 *8:3 2.38003e-05
5 *8:4 2.23292e-05
6 *8:5 7.72500146e-05
7 *8:6 7.72500146e-05
8 *8:7 3.60594e-05
9 *8:8 3.60594e-05
10 *8:9 4.58797e-05
11 *8:10 3.06501e-05
12 *8:11 7.49102e-05
13 *8:12 3.76095e-05
14 *8:13 5.65003e-05
15 *8:14 5.71192e-05
16 *8:15 1.69105e-05
17 *8:16 4.80792e-05

*RES
1 *8:9 *189:B 0.655113
2 *8:16 *8:9 0.526821
3 *8:10 *182:Y 0.166414
4 *8:11 *8:16 0.589818
5 *8:11 *8:10 0.526821
6 *8:12 *8:11 0.589818
7 *8:4 *8:12 8.85957623
8 *8:4 *8:3 0.264695
9 *8:3 *8:6 0.194668
10 *8:6 *8:5 1.3789
11 *8:8 *8:5 0.194668
12 *8:8 *8:7 0.939546
13 *8:15 *8:7 0.194668
14 *8:14 *8:15 8.85957623
15 *8:13 *188:B 0.263478
16 *8:13 *8:14 1.01971
*END

*D_NET *9 0.0150264

*CONN
*P *9 I *C 0 0 *L 0
*I *283:CK I *C 35.9 28.025 *L 0.000579 *D DFFRX2
*I *282:CK I *C 29.9 36.195 *L 0.000579 *D DFFRX2
*I *281:CK I *C 26.5 24.605 *L 0.000579 *D DFFRX2
*I *280:CK I *C 24.1 32.775 *L 0.000579 *D DFFRX2
*I *279:CK I *C 21.7 31.445 *L 0.000579 *D DFFRX2
*I *278:CK I *C 44.3 36.765 *L 0.000557 *D DFFSRX1
*I *277:CK I *C 21.3 38.285 *L 0.000579 *D DFFRX2
*I *276:CK I *C 21.3 22.705 *L 0.000529 *D DFFRXL
*I *275:CK I *C 36.1 29.355 *L 0.000579 *D DFFRX2
*I *274:CK I *C 21.7 34.865 *L 0.000579 *D DFFRX2
*I *273:CK I *C 20.9 29.355 *L 0.000579 *D DFFRX2
*I *272:CK I *C 39.7 24.605 *L 0.000579 *D DFFRX2
*I *271:CK I *C 44.5 41.135 *L 0.000557 *D DFFSRX1
*I *270:CK I *C 35.7 34.865 *L 0.000579 *D DFFRX2
*I *269:CK I *C 36.3 36.195 *L 0.000579 *D DFFRX2
*I *268:CK I *C 29.5 43.225 *L 0.000529 *D DFFRXL
*I *259:CK I *C 34.5 44.555 *L 0.000557 *D DFFSRX1
*I *254:CK I *C 16.3 22.705 *L 0.000529 *D DFFRXL
*I *243:CK I *C 15.1 20.995 *L 0.00053 *D DFFRX4
*I *240:CK I *C 16.1 43.225 *L 0.000597 *D DFFRX1
*I *237:CK I *C 35.7 44.935 *L 0.000597 *D DFFRX1
*I *236:CK I *C 15.3 44.935 *L 0.00053 *D DFFRX4
*I *235:CK I *C 21.1 39.615 *L 0.00062 *D SDFFSRX1
*I *228:CK I *C 34.9 25.935 *L 0.000579 *D DFFRX2
*I *223:CK I *C 39.9 25.935 *L 0.000579 *D DFFRX2
*I *222:CK I *C 23.3 41.515 *L 0.000597 *D DFFRX1
*I *215:CK I *C 28.5 17.765 *L 0.000579 *D DFFRX2
*I *214:CK I *C 46.1 20.615 *L 0.000557 *D DFFSRX1
*I *213:CK I *C 38.3 43.225 *L 0.00053 *D DFFRX4
*I *210:CK I *C 35.7 20.995 *L 0.000597 *D DFFRX1
*I *208:CK I *C 28.1 21.185 *L 0.000579 *D DFFRX2
*I *198:CK I *C 21.7 44.935 *L 0.00053 *D DFFRX4
*I *193:CK I *C 26.1 27.835 *L 0.00053 *D DFFRX4
*I *190:CK I *C 24.5 15.865 *L 0.00053 *D DFFRX4
*I *184:CK I *C 15.1 19.285 *L 0.00053 *D DFFRX4
*I *183:CK I *C 37.9 17.575 *L 0.00053 *D DFFRX4

*CAP
1 *283:CK 2.01206e-05
2 *282:CK 4.06423e-05
3 *281:CK 2.01206e-05
4 *280:CK 4.42654e-05
5 *279:CK 3.91985e-05
6 *278:CK 2.01206e-05
7 *277:CK 2.01206e-05
8 *276:CK 2.01206e-05
9 *275:CK 1.01606e-05
10 *274:CK 1.96126e-05
11 *273:CK 2.01206e-05
12 *272:CK 2.01206e-05
13 *271:CK 2.01206e-05
14 *270:CK 2.01206e-05
15 *269:CK 3.55754e-05
16 *268:CK 1.4051e-05
17 *259:CK 1.35296e-05
18 *254:CK 9.30496e-06
19 *243:CK 2.01206e-05
20 *240:CK 2.01206e-05
21 *237:CK 3.04951e-05
22 *236:CK 2.01206e-05
23 *235:CK 2.01206e-05
24 *228:CK 2.03212e-05
25 *223:CK 2.01206e-05
26 *222:CK 5.06024e-05
27 *215:CK 1.2567e-05
28 *214:CK 2.01206e-05
29 *213:CK 2.01206e-05
30 *210:CK 4.04552e-05
31 *208:CK 7.0215e-05
32 *198:CK 2.01206e-05
33 *193:CK 2.01206e-05
34 *190:CK 2.01206e-05
35 *184:CK 2.01206e-05
36 *183:CK 2.01206e-05
37 *9:37 2.18854e-05
38 *9:38 3.9506e-05
39 *9:39 8.57233e-05
40 *9:40 9.59507e-05
41 *9:41 0.000118157
42 *9:42 0.000115323
43 *9:43 4.28215e-05
44 *9:44 8.24077e-05
45 *9:45 6.66989e-05
46 *9:46 0.000163906
47 *9:47 0.000163906
48 *9:48 0.000121847
49 *9:49 5.12575e-05
50 *9:50 0.000100723
51 *9:51 2.04816e-05
52 *9:52 0.000102194
53 *9:53 6.07229e-05
54 *9:54 6.07229e-05
55 *9:55 0.000148893
56 *9:56 0.000150363
57 *9:57 2.57758e-05
58 *9:58 6.39983e-05
59 *9:59 9.77823e-05
60 *9:60 6.07095e-05
61 *9:61 2.3356e-05
62 *9:62 2.42116e-05
63 *9:63 8.03622e-05
64 *9:64 8.09906e-05
65 *9:65 0.000160818
66 *9:66 0.00021114
67 *9:67 5.44394e-05
68 *9:68 5.74608e-05
69 *9:69 0.000218586
70 *9:70 0.000216795
71 *9:71 0.00087615
72 *9:72 0.000521398
73 *9:73 0.000159735
74 *9:74 0.000136459
75 *9:75 6.19127e-05
76 *9:76 7.06161e-05
77 *9:77 8.12847e-05
78 *9:78 7.27017e-05
79 *9:79 7.27017e-05
80 *9:80 0.000149427
81 *9:81 0.000485596
82 *9:82 3.03882e-05
83 *9:83 0.000277705
84 *9:84 5.4426e-05
85 *9:85 0.000116285
86 *9:86 0.000238694
87 *9:87 0.000170618
88 *9:88 6.28486e-05
89 *9:89 0.000191821
90 *9:90 0.000137569
91 *9:91 9.36512e-05
92 *9:92 9.36512e-05
93 *9:93 2.21394e-05
94 *9:94 2.361e-05
95 *9:95 2.23132e-05
96 *9:96 2.08292e-05
97 *9:97 0.000118892
98 *9:98 0.000128451
99 *9:99 5.08297e-05
100 *9:100 5.08297e-05
101 *9:101 0.000313655
102 *9:102 0.000313655
103 *9:103 1.9011e-05
104 *9:104 6.00678e-05
105 *9:105 4.81692e-05
106 *9:106 5.00008e-05
107 *9:107 3.7407e-05
108 *9:108 3.59498e-05
109 *9:109 5.42522e-05
110 *9:110 5.42522e-05
111 *9:111 0.000240565
112 *9:112 0.00012162
113 *9:116 6.81027e-05
114 *9:117 0.000239095
115 *9:118 7.19664e-05
116 *9:119 1.54414e-05
117 *9:120 4.92655e-05
118 *9:121 7.1338e-05
119 *9:122 1.94789e-05
120 *9:123 0.0002434
121 *9:124 3.93455e-05
122 *9:125 3.08026e-05
123 *9:126 0.00035435
124 *9:127 0.0001167
125 *9:128 0.00020126
126 *9:129 0.000136406
127 *9:130 4.41718e-05
128 *9:131 0.000347586
129 *9:132 4.41718e-05
130 *9:133 0.000194669
131 *9:134 8.52954e-05
132 *9:135 2.7955e-05
133 *9:136 7.94264e-05
134 *9:137 0.000158371
135 *9:138 0.000227236
136 *9:139 2.36902e-05
137 *9:140 0.000360794
138 *9:141 2.00805e-05
139 *9:142 0.000102568
140 *9:143 6.29422e-05
141 *9:144 0.000237838
142 *9:145 1.94789e-05
143 *9:146 7.00412e-05
144 *9:147 0.000499326
145 *9:148 0.000244335
146 *9:149 0.000370795
147 *9:150 0.000127542
148 *9:151 1.54414e-05

*RES
1 *9:76 *193:CK 8.85973
2 *9:122 *254:CK 0.166741
3 *9:77 *9:76 0.825929
4 *9:121 *9:122 0.263502
5 *9:69 *215:CK 0.325706
6 *9:134 *208:CK 1.33133
7 *9:77 *9:75 0.389638
8 *9:96 *183:CK 8.85973
9 *9:116 *184:CK 8.85973
10 *9:118 *9:121 0.831976
11 *9:70 *9:69 3.32704
12 *9:68 *190:CK 8.85973
13 *9:135 *9:134 8.85973
14 *9:73 *281:CK 8.85973
15 *9:73 *9:75 1.69505
16 *9:96 *9:95 0.297196
17 *9:39 *243:CK 8.85973
18 *9:116 *9:39 1.16546
19 *9:37 *9:118 8.85973
20 *9:66 *9:70 8.85973
21 *9:68 *9:66 1.08857
22 *9:135 *9:74 0.388774
23 *9:74 *9:73 1.98793
24 *9:95 *9:92 0.194387
25 *9:151 *214:CK 8.85973
26 *9:115 *9:151 0.222033
27 *9:39 *9:38 0.589209
28 *9:38 *9:37 0.259183
29 *9:66 *9:65 3.35469
30 *9:136 *9:74 8.85973
31 *9:92 *9:91 1.70715
32 *9:101 *9:151 8.85973
33 *9:117 *9:38 8.85973
34 *9:133 *9:65 8.85973
35 *9:133 *9:136 1.36503
36 *9:108 *278:CK 8.85973
37 *9:94 *9:91 0.194387
38 *9:102 *9:101 5.59835
39 *9:117 *9:126 4.23245
40 *9:126 *9:133 2.18491
41 *9:108 *9:107 0.873446
42 *9:94 *9:93 0.264366
43 *9:93 *9:102 8.85973
44 *9:125 *9:126 8.85973
45 *9:107 *9:112 0.194387
46 *9:97 *9:93 8.85973
47 *9:41 *276:CK 8.85973
48 *9:125 *9:41 0.388774
49 *9:111 *271:CK 8.85973
50 *9:112 *9:111 2.25489
51 *9:105 *272:CK 8.85973
52 *9:103 *223:CK 8.85973
53 *9:98 *9:97 2.15035
54 *9:41 *9:40 1.46438
55 *9:100 *213:CK 8.85973
56 *9:111 *9:150 2.20046
57 *9:105 *9:104 0.647093
58 *9:104 *9:103 0.284237
59 *9:98 *210:CK 0.527005
60 *9:47 *9:40 0.194387
61 *9:100 *9:99 0.776684
62 *9:149 *9:150 8.85973
63 *9:84 *228:CK 0.527005
64 *9:148 *9:104 8.85973
65 *9:47 *9:46 2.73265
66 *9:147 *9:99 8.85973
67 *9:147 *9:149 5.15773
68 *9:84 *9:83 0.798283
69 *9:83 *9:148 3.32704
70 *9:87 *210:CK 8.85973
71 *9:49 *9:46 0.194387
72 *9:144 *9:147 1.99657
73 *9:144 *237:CK 0.790507
74 *259:CK *9:139 0.184884
75 *9:145 *275:CK 0.263502
76 *9:86 *9:83 8.85973
77 *9:87 *9:86 2.97714
78 *9:106 *279:CK 0.665235
79 *9:48 *273:CK 8.85973
80 *9:49 *9:48 0.692882
81 *9:138 *9:144 0.997853
82 *9:138 *9:139 0.263502
83 *9:141 *9:145 0.166741
84 *9:85 *283:CK 8.85973
85 *9:86 *9:85 1.85661
86 *9:67 *280:CK 1.83933
87 *9:50 *9:106 8.85973
88 *9:48 *9:50 1.47734
89 *9:137 *9:138 2.0173
90 *9:142 *9:141 8.85973
91 *9:85 *9:142 0.776684
92 *9:63 *9:67 0.263502
93 *9:50 *9:124 0.388774
94 *9:78 *9:137 8.85973
95 *9:142 *9:143 1.03587
96 *9:64 *9:63 0.924418
97 *9:124 *9:43 0.389638
98 *9:79 *9:78 1.18792
99 *9:90 *9:143 0.194387
100 *9:82 *274:CK 0.332618
101 *9:42 *9:64 8.85973
102 *9:43 *9:42 0.393958
103 *9:80 *9:79 8.85973
104 *9:62 *268:CK 0.184884
105 *9:89 *270:CK 8.85973
106 *9:90 *9:89 3.07736
107 *9:52 *9:82 8.85973
108 *9:42 *9:52 1.55337
109 *9:81 *9:80 2.96332
110 *9:81 *9:62 0.263502
111 *9:89 *9:88 1.59484
112 *269:CK *9:146 0.921826
113 *9:52 *9:51 0.284237
114 *9:131 *9:81 4.82425
115 *9:140 *9:88 8.85973
116 *9:140 *9:146 0.499359
117 *9:54 *9:51 0.194387
118 *9:132 *9:131 8.85973
119 *282:CK *9:71 1.05401
120 *9:71 *9:140 4.65838
121 *9:54 *9:53 0.974527
122 *9:130 *9:132 0.647093
123 *9:72 *9:71 7.32018
124 *9:53 *9:61 0.194387
125 *222:CK *9:130 8.85973
126 *9:60 *9:72 8.85973
127 *9:61 *9:60 0.259183
128 *9:59 *277:CK 8.85973
129 *9:60 *9:59 1.00476
130 *9:129 *222:CK 0.790507
131 *9:58 *235:CK 8.85973
132 *9:59 *9:58 0.906275
133 *9:127 *9:129 1.49721
134 *9:58 *9:45 0.194387
135 *9:44 *9:127 8.85973
136 *9:45 *9:44 0.957248
137 *9:44 *9:57 0.264366
138 *9:57 *9:56 0.194387
139 *9:110 *240:CK 8.85973
140 *9:55 *198:CK 8.85973
141 *9:114 *9:55 0.222033
142 *9:56 *9:55 2.4726
143 *9:110 *9:109 1.3754
144 *9:128 *9:55 8.85973
145 *9:123 *9:109 8.85973
146 *9:123 *9:128 3.68644
147 *9:120 *9:123 0.682514
148 *9:119 *236:CK 8.85973
149 *9:119 *9:120 8.85973
150 *9:113 *9:119 0.222033
151 *184:CK *9 56.6193123
*END

*D_NET *10 0.012826

*CONN
*P *10 I *C 0 0 *L 0
*I *283:RN I *C 33.7 27.835 *L 0.00134 *D DFFRX2
*I *282:RN I *C 27.7 36.385 *L 0.00134 *D DFFRX2
*I *281:RN I *C 24.3 24.415 *L 0.00134 *D DFFRX2
*I *280:RN I *C 21.9 32.965 *L 0.00134 *D DFFRX2
*I *279:RN I *C 19.5 31.255 *L 0.00134 *D DFFRX2
*I *278:RN I *C 38.9 36.385 *L 0.000573 *D DFFSRX1
*I *277:RN I *C 19.1 38.095 *L 0.00134 *D DFFRX2
*I *276:RN I *C 21.9 22.705 *L 0.00149 *D DFFRXL
*I *275:RN I *C 33.9 29.545 *L 0.00134 *D DFFRX2
*I *274:RN I *C 19.5 34.675 *L 0.00134 *D DFFRX2
*I *273:RN I *C 18.7 29.545 *L 0.00134 *D DFFRX2
*I *272:RN I *C 37.5 24.415 *L 0.00134 *D DFFRX2
*I *271:RN I *C 39.1 41.515 *L 0.000573 *D DFFSRX1
*I *270:RN I *C 33.5 34.675 *L 0.00134 *D DFFRX2
*I *269:RN I *C 34.1 36.385 *L 0.00134 *D DFFRX2
*I *268:RN I *C 30.1 43.225 *L 0.00149 *D DFFRXL
*I *259:RN I *C 29.1 44.935 *L 0.000573 *D DFFSRX1
*I *254:RN I *C 16.9 22.705 *L 0.00149 *D DFFRXL
*I *243:RN I *C 16.9 20.995 *L 0.00225 *D DFFRX4
*I *240:RN I *C 16.9 43.225 *L 0.00148 *D DFFRX1
*I *237:RN I *C 36.5 44.935 *L 0.00148 *D DFFRX1
*I *236:RN I *C 17.1 44.935 *L 0.00225 *D DFFRX4
*I *235:RN I *C 16.7 39.805 *L 0.000615 *D SDFFSRX1
*I *228:RN I *C 32.7 26.125 *L 0.00134 *D DFFRX2
*I *223:RN I *C 37.7 26.125 *L 0.00134 *D DFFRX2
*I *222:RN I *C 24.1 41.515 *L 0.00148 *D DFFRX1
*I *215:RN I *C 26.3 17.575 *L 0.00134 *D DFFRX2
*I *214:RN I *C 40.7 20.995 *L 0.000573 *D DFFSRX1
*I *213:RN I *C 40.1 43.225 *L 0.00225 *D DFFRX4
*I *210:RN I *C 36.5 20.995 *L 0.00148 *D DFFRX1
*I *208:RN I *C 25.9 20.995 *L 0.00134 *D DFFRX2
*I *198:RN I *C 23.5 44.935 *L 0.00225 *D DFFRX4
*I *193:RN I *C 27.9 27.835 *L 0.00225 *D DFFRX4
*I *190:RN I *C 26.3 15.865 *L 0.00225 *D DFFRX4
*I *184:RN I *C 16.9 19.285 *L 0.00225 *D DFFRX4
*I *183:RN I *C 39.7 17.575 *L 0.00225 *D DFFRX4

*CAP
1 *283:RN 2.01178e-05
2 *282:RN 2.01178e-05
3 *281:RN 2.01178e-05
4 *280:RN 2.01178e-05
5 *279:RN 2.34404e-05
6 *278:RN 1.01578e-05
7 *277:RN 2.01178e-05
8 *276:RN 2.03307e-05
9 *275:RN 2.01178e-05
10 *274:RN 2.81923e-05
11 *273:RN 2.01178e-05
12 *272:RN 2.01178e-05
13 *271:RN 1.01578e-05
14 *270:RN 2.01178e-05
15 *269:RN 1.89698e-05
16 *268:RN 2.01178e-05
17 *259:RN 1.01578e-05
18 *254:RN 0.000103782
19 *243:RN 2.01178e-05
20 *240:RN 2.01178e-05
21 *237:RN 2.01178e-05
22 *236:RN 2.01178e-05
23 *235:RN 2.01178e-05
24 *228:RN 1.01578e-05
25 *223:RN 2.01178e-05
26 *222:RN 2.01178e-05
27 *215:RN 2.01178e-05
28 *214:RN 3.04885e-05
29 *213:RN 2.01178e-05
30 *210:RN 4.12773e-05
31 *208:RN 4.2585e-05
32 *198:RN 2.01178e-05
33 *193:RN 2.01178e-05
34 *190:RN 2.01178e-05
35 *184:RN 2.01178e-05
36 *183:RN 2.01178e-05
37 *10:37 0.000146489
38 *10:38 5.24539e-05
39 *10:39 0.000102642
40 *10:40 0.000117149
41 *10:41 7.76202e-05
42 *10:42 4.66603e-05
43 *10:43 0.000153454
44 *10:44 0.000153454
45 *10:45 0.000111713
46 *10:46 0.00011045
47 *10:47 7.89963e-05
48 *10:48 0.00014896
49 *10:49 8.71925e-05
50 *10:50 0.0001069
51 *10:51 0.000201992
52 *10:52 7.44269e-05
53 *10:53 0.000134689
54 *10:54 0.000115408
55 *10:55 0.000135738
56 *10:56 0.000316054
57 *10:57 0.000179076
58 *10:58 2.2893e-05
59 *10:59 8.41741e-05
60 *10:60 3.89736e-05
61 *10:61 0.000166219
62 *10:62 0.00012295
63 *10:63 2.93176e-05
64 *10:64 7.40619e-05
65 *10:65 8.43185e-05
66 *10:66 9.7776e-05
67 *10:67 6.05208e-05
68 *10:68 5.98973e-05
69 *10:69 2.35316e-05
70 *10:70 5.93803e-05
71 *10:71 0.000117719
72 *10:72 6.69454e-05
73 *10:73 0.000398396
74 *10:74 5.92359e-05
75 *10:75 0.000347759
76 *10:76 0.000121277
77 *10:77 0.000121277
78 *10:78 0.000127002
79 *10:79 0.000278411
80 *10:80 0.00010081
81 *10:81 0.00019832
82 *10:82 0.000221996
83 *10:83 0.000143227
84 *10:84 0.000330066
85 *10:85 0.000118837
86 *10:86 3.42216e-05
87 *10:87 0.000119658
88 *10:88 0.000100635
89 *10:89 7.7088e-05
90 *10:90 7.48983e-05
91 *10:91 7.34309e-05
92 *10:92 3.07242e-05
93 *10:93 6.29994e-05
94 *10:94 2.97434e-05
95 *10:95 5.20585e-05
96 *10:98 4.23493e-05
97 *10:99 0.000263463
98 *10:100 5.00285e-05
99 *10:101 4.85611e-05
100 *10:102 0.00010265
101 *10:103 0.000255297
102 *10:104 0.000316791
103 *10:105 2.76221e-05
104 *10:106 4.80365e-05
105 *10:107 1.54419e-05
106 *10:108 6.82684e-05
107 *10:109 0.00049827
108 *10:110 6.32427e-05
109 *10:111 6.05208e-05
110 *10:112 0.000111454
111 *10:113 5.27428e-05
112 *10:114 6.23303e-05
113 *10:115 1.69093e-05
114 *10:116 0.000218361
115 *10:117 4.52689e-05
116 *10:118 7.01387e-05
117 *10:119 0.000241939
118 *10:120 7.73693e-05
119 *10:121 0.000257198
120 *10:122 4.58924e-05
121 *10:123 1.43623e-05
122 *10:124 0.000245603
123 *10:125 1.54419e-05
124 *10:126 0.000378749
125 *10:127 2.8717e-05
126 *10:128 0.000137343
127 *10:129 0.000136233
128 *10:130 0.000128493
129 *10:131 2.2452e-05
130 *10:132 0.000317225
131 *10:133 0.000101289
132 *10:134 7.72172e-05
133 *10:135 4.52689e-05
134 *10:136 5.75099e-05
135 *10:137 4.58924e-05
136 *10:138 7.05797e-05
137 *10:139 0.000128683

*RES
1 *228:RN *10:68 0.263659
2 *10:68 *10:67 0.704605
3 *10:72 *10:67 8.85984
4 *10:77 *183:RN 8.85984
5 *10:71 *283:RN 8.85984
6 *10:72 *10:71 1.03554
7 *10:77 *10:76 3.16663
8 *214:RN *10:80 0.790067
9 *10:71 *10:70 0.906441
10 *10:81 *10:76 8.85984
11 *10:81 *10:80 0.998267
12 *210:RN *10:95 0.665511
13 *10:70 *10:69 0.194562
14 *10:128 *10:81 1.83016
15 *10:127 *10:95 8.85984
16 *10:66 *275:RN 8.85984
17 *10:69 *10:66 0.259113
18 *10:129 *10:128 8.85984
19 *10:127 *10:129 0.388215
20 *10:66 *10:65 1.7156
21 *10:130 *272:RN 8.85984
22 *10:129 *10:130 1.94198
23 *10:62 *10:65 0.194562
24 *10:94 *269:RN 0.332756
25 *10:130 *10:131 0.259113
26 *10:61 *270:RN 8.85984
27 *10:62 *10:61 2.02654
28 *10:63 *10:94 8.85984
29 *10:131 *10:74 0.194562
30 *10:61 *10:64 0.793704
31 *10:64 *10:63 0.400034
32 *10:73 *223:RN 8.85984
33 *10:74 *10:73 0.911896
34 *10:124 *10:64 8.85984
35 *10:73 *10:75 6.77148
36 *10:124 *10:132 3.32756
37 *10:132 *10:75 8.85984
38 *10:132 *10:133 1.16464
39 *10:133 *10:134 0.526408
40 *10:134 *278:RN 0.263659
41 *271:RN *10:135 0.263659
42 *10:134 *10:136 0.831889
43 *10:135 *10:137 0.665511
44 *10:82 *10:136 8.85984
45 *10:79 *10:137 8.85984
46 *10:82 *10:79 3.82305
47 *10:78 *213:RN 8.85984
48 *10:79 *10:78 1.07009
49 *10:78 *10:138 1.16464
50 *10:125 *237:RN 8.85984
51 *10:97 *10:125 0.221837
52 *10:139 *10:138 8.85984
53 *259:RN *10:117 0.263659
54 *10:126 *10:125 8.85984
55 *10:126 *10:139 2.32111
56 *10:117 *10:122 0.665511
57 *10:121 *10:126 4.50584
58 *10:123 *10:122 8.85984
59 *10:52 *190:RN 8.85984
60 *10:91 *222:RN 8.85984
61 *10:120 *10:121 8.85984
62 *10:120 *10:123 0.129102
63 *10:51 *215:RN 8.85984
64 *10:52 *10:51 1.19919
65 *10:110 *198:RN 8.85984
66 *10:91 *10:90 1.19374
67 *10:118 *268:RN 8.85984
68 *10:118 *10:120 1.16464
69 *10:51 *10:53 2.2911
70 *10:108 *10:110 1.03554
71 *10:108 *10:90 0.194562
72 *10:119 *10:118 8.85984
73 *10:101 *236:RN 8.85984
74 *10:114 *10:53 8.85984
75 *10:113 *208:RN 0.554593
76 *10:109 *10:108 8.85984
77 *10:109 *10:119 4.23309
78 *10:100 *10:101 0.77643
79 *10:112 *10:114 0.975537
80 *10:112 *10:113 0.263659
81 *10:99 *10:109 4.7795
82 *10:92 *10:100 0.194562
83 *10:111 *10:112 0.831889
84 *10:93 *240:RN 8.85984
85 *10:93 *10:99 8.85984
86 *10:93 *10:92 0.405489
87 *10:89 *10:111 8.85984
88 *10:47 *281:RN 8.85984
89 *10:98 *10:93 0.647328
90 *10:89 *10:48 1.14282
91 *10:48 *10:47 1.57923
92 *10:39 *10:98 0.194562
93 *10:41 *184:RN 8.85984
94 *10:49 *10:48 8.85984
95 *10:37 *10:39 1.75651
96 *10:37 *235:RN 8.85984
97 *10:40 *243:RN 8.85984
98 *10:41 *10:40 1.21556
99 *10:50 *10:49 2.39566
100 *10:50 *276:RN 0.526408
101 *10:38 *10:37 0.810069
102 *10:40 *10:42 1.40557
103 *10:54 *10:50 0.263659
104 *10:44 *10:38 8.85984
105 *254:RN *10:42 8.85984
106 *10:55 *10:54 2.63841
107 *10:44 *10:43 1.99653
108 *10:55 *10:106 0.790067
109 *10:105 *10:43 8.85984
110 *254:RN *10:102 1.4974
111 *10:102 *10:106 0.332756
112 *10:87 *277:RN 8.85984
113 *10:87 *10:105 0.388215
114 *10:103 *10:102 8.85984
115 *10:88 *10:87 2.27201
116 *10:86 *279:RN 0.549138
117 *10:104 *273:RN 8.85984
118 *10:103 *10:104 4.6604
119 *10:60 *274:RN 0.499133
120 *10:58 *10:88 0.194562
121 *10:57 *193:RN 8.85984
122 *10:83 *282:RN 8.85984
123 *10:46 *10:86 8.85984
124 *10:104 *10:46 1.16464
125 *10:59 *10:60 8.85984
126 *10:59 *10:58 0.264568
127 *10:57 *10:56 3.90124
128 *10:56 *10:83 2.43112
129 *10:46 *10:45 1.37193
130 *10:45 *10:59 1.16464
131 *10:115 *10:56 0.194562
132 *10:85 *10:45 8.85984
133 *10:116 *10:115 8.85984
134 *10:85 *10:84 2.05472
135 *10:84 *10:116 3.95943
136 *10:107 *280:RN 8.85984
137 *10:107 *10:84 8.85984
138 *10:96 *10:107 0.221837
139 *184:RN *10 59.5832443
*END

*D_NET *11 0.00154166

*CONN
*P *11 I *C 0 0 *L 0
*I *298:A I *C 31.1 29.545 *L 0.000615 *D AND2X1
*I *293:A I *C 22.9 29.545 *L 0.000615 *D AND2X1
*I *291:A I *C 17.1 31.255 *L 0.000615 *D AND2X1
*I *286:A I *C 31.3 31.255 *L 0.000615 *D AND2X1

*CAP
1 *298:A 2.01201e-05
2 *293:A 2.01201e-05
3 *291:A 2.01201e-05
4 *286:A 2.01201e-05
5 *11:5 4.14824e-05
6 *11:6 4.14824e-05
7 *11:7 6.76235e-05
8 *11:8 6.90951e-05
9 *11:9 3.61972e-05
10 *11:10 3.11731e-05
11 *11:11 6.49888e-05
12 *11:12 0.000219201
13 *11:13 6.49888e-05
14 *11:14 0.00051851
15 *11:15 0.000306438

*RES
1 *11:7 *286:A 8.85923
2 *11:10 *298:A 8.85923
3 *11:8 *11:7 0.687251
4 *11:6 *293:A 8.85923
5 *11:10 *11:9 0.594347
6 *11:9 *11:8 0.194146
7 *11:6 *11:5 0.540749
8 *11:15 *11:9 8.85923
9 *11:14 *11:5 8.85923
10 *11:14 *11:15 5.59806
11 *11:12 *11:14 3.96033
12 *11:13 *291:A 8.85923
13 *11:11 *11:12 8.85923
14 *11:11 *11:13 0.706309
15 *11:11 *11 78.0584106
*END

*D_NET *12 0.00224088

*CONN
*P *12 I *C 0 0 *L 0
*I *299:A I *C 16.9 29.545 *L 0.000615 *D AND2X1
*I *296:A I *C 32.1 29.545 *L 0.000615 *D AND2X1
*I *295:A I *C 29.3 31.255 *L 0.000615 *D AND2X1
*I *287:A I *C 19.1 32.965 *L 0.000615 *D AND2X1

*CAP
1 *299:A 2.01231e-05
2 *296:A 2.01231e-05
3 *295:A 4.06458e-05
4 *287:A 2.01231e-05
5 *12:5 0.000122969
6 *12:6 0.000122969
7 *12:7 0.000608507
8 *12:8 0.00060913
9 *12:9 5.53315e-05
10 *12:10 5.53315e-05
11 *12:11 5.40024e-05
12 *12:12 1.99093e-05
13 *12:13 4.04042e-05
14 *12:14 5.40024e-05
15 *12:15 2.76146e-05
16 *12:16 0.000194706
17 *12:17 0.000174992

*RES
1 *12:10 *296:A 8.85953
2 *12:10 *12:9 0.907892
3 *12:17 *12:9 8.85953
4 *12:16 *12:17 2.32924
5 *12:16 *295:A 0.790029
6 *295:A *12:7 0.263732
7 *12:8 *12:7 8.48494
8 *12:12 *12:8 8.85953
9 *12:15 *287:A 8.85953
10 *12:12 *12:13 0.141202
11 *12:13 *12:15 0.388596
12 *12:14 *12:13 8.85953
13 *12:11 *12:14 1.74693
14 *12:5 *12:11 8.85953
15 *12:6 *12:5 2.03517
16 *299:A *12:6 8.85953
17 *299:A *12 76.4776535
*END

*D_NET *13 0.00222332

*CONN
*P *13 I *C 0 0 *L 0
*I *294:A I *C 32.3 36.385 *L 0.000615 *D AND2X1
*I *292:A I *C 31.7 34.675 *L 0.000615 *D AND2X1
*I *289:A I *C 18.1 32.965 *L 0.000615 *D AND2X1
*I *285:A I *C 23.3 36.385 *L 0.000615 *D AND2X1

*CAP
1 *294:A 1.01622e-05
2 *292:A 2.52512e-05
3 *289:A 2.01145e-05
4 *285:A 2.01145e-05
5 *13:5 2.51647e-05
6 *13:6 2.36953e-05
7 *13:7 6.93326e-05
8 *13:8 6.93326e-05
9 *13:9 0.00080921
10 *13:10 0.000330031
11 *13:11 3.57591e-05
12 *13:12 3.57591e-05
13 *13:13 0.000498676
14 *13:14 5.98619e-05
15 *13:15 5.98619e-05
16 *13:16 1.95959e-05
17 *13:17 1.81265e-05
18 *13:18 4.69215e-05
19 *13:19 4.63164e-05

*RES
1 *13:19 *294:A 0.263022
2 *13:18 *13:19 0.499101
3 *13:14 *13:18 8.85937
4 *13:15 *13:14 0.569668
5 *13:11 *285:A 8.85937
6 *292:A *13:15 8.85937
7 *13:12 *13:11 0.595329
8 *292:A *13:13 0.263022
9 *13:9 *13:12 8.85937
10 *13:9 *13:13 6.98742
11 *13:10 *13:9 4.36617
12 *13:17 *13:10 8.85937
13 *13:16 *13:17 0.283551
14 *13:6 *289:A 8.85937
15 *13:7 *13:16 0.195022
16 *13:6 *13:5 0.259173
17 *13:8 *13:7 1.03541
18 *13:8 *13:5 0.195022
19 *289:A *13 84.0850754
*END
